ieee/IEEE14.pwf
TITU
IEEE 14 Bus Test Case - Winter 1962
DBAR
(Num)OETGb(   nome   )Gl( V)( A)( Pg)( Qg)( Qn)( Qm)(Bc  )( Pl)( Ql)( Sh)Are(Vf)
    1  2  Barra-01--HV  1060 0.0232.4-16.9               1                 1
    2  1  Barra-02--HV  1045-4.9 40.0 42.4-40.0 50.0     2 21.7 12.7       1
    3  1  Barra-03--HV  1010-12.  0.0 23.4  0.0 40.0     3 94.2 19.0       1
    4  0  Barra-04--HV  1019-10.                           47.8 -3.9       1
    5  0  Barra-05--HV  1020-8.7                            7.6  1.6       1
    6  1  Barra-06--LV  1070-14.  0.0 12.2 -6.0 24.0     6 11.2  7.5       1
    7  0  Barra-07--ZV  1062-13.                                           1
    8  1  Barra-08--TV  1090-13.  0.0 17.4 -6.0 24.0     8                 1
    9  0  Barra-09--LV  1056-14.                           29.5 16.6 19.0  1
   10  0  Barra-10--LV  1051-15.                            9.0  5.8       1
   11  0  Barra-11--LV  1057-14.                            3.5  1.8       1
   12  0  Barra-12--LV  1055-15.                            6.1  1.6       1
   13  0  Barra-13--LV  1050-15.                           13.5  5.8       1
   14  0  Barra-14--LV  1036-16.                           14.9  5.0       1
99999
DLIN
(De )d O d(Pa )NcEP ( R% )( X% )(Mvar)(Tap)(Tmn)(Tmx)(Phs)(Bc  )(Cn)(Ce)Ns
    1         2 1    1.938 5.917  5.28
    1         5 1    5.40322.304  4.92
    2         3 1    4.69919.797  4.38
    2         4 1    5.81117.632  3.40
    2         5 1    5.69517.388  3.46
    3         4 1    6.70117.103  1.28
    4         5 1    1.335 4.211
    4         7 1    0.00020.912      0.978
    4         9 1    0.00055.618      0.969
    5         6 1    0.00025.202      0.932
    6        11 1    9.49819.890
    6        12 1   12.29125.581
    6        13 1    6.61513.027
    7         8 1    0.00017.615
    7         9 1    0.00011.001
    9        10 1    3.181 8.450
    9        14 1   12.71127.038
   10        11 1    8.20519.207
   12        13 1   22.09219.988
   13        14 1   17.09334.802
99999
FIM
